.dc v1 -10e-00 10e-00 0.05e-00 i1 0e-03 5e-03 1e-03