.dc v2 -1e-00 10e-00 0.02e-00 v1 0e-03 100e-03 20e-03