.dc v2 0e-00 10e-00 0.05e-00 v1 0e-03 5e-03 1e-03