.dc v1 0e-00 20e-00 0.002e-00 i1 -5e-03 0e-03 1e-03