.dc v1 0e-00 10e-00 0.005e-00 i1 0e-06 80e-06 10e-06