.dc v2 -1e-00 10e-00 0.02e-00 v1 0e-00 5e-00 1e-00