.dc vds1 0e-00 15e-00 0.005e-00 vgs1 -5e-03 50e-03 5e-03